
#######################################################################
#
#                 Cambridge Crystallographic Data Centre
#                                CCDC 
#
#######################################################################
#
# If this CIF has been generated from an entry in the Cambridge 
# Structural Database, then it will include bibliographic, chemical, 
# crystal, experimental, refinement or atomic coordinate data resulting 
# from the CCDC's data processing and validation procedures.
#
#######################################################################

data_eric007_sq
_symmetry_cell_setting           cubic
_symmetry_space_group_name_H-M   'F m -3 m'
_symmetry_Int_Tables_number      225
_space_group_name_Hall           '-F 4 2 3'
loop_
_symmetry_equiv_pos_site_id
_symmetry_equiv_pos_as_xyz
1 x,y,z
2 -x,-y,z
3 -x,y,-z
4 x,-y,-z
5 z,x,y
6 z,-x,-y
7 -z,-x,y
8 -z,x,-y
9 y,z,x
10 -y,z,-x
11 y,-z,-x
12 -y,-z,x
13 y,x,-z
14 -y,-x,-z
15 y,-x,z
16 -y,x,z
17 x,z,-y
18 -x,z,y
19 -x,-z,-y
20 x,-z,y
21 z,y,-x
22 z,-y,x
23 -z,y,x
24 -z,-y,-x
25 x,1/2+y,1/2+z
26 -x,1/2-y,1/2+z
27 -x,1/2+y,1/2-z
28 x,1/2-y,1/2-z
29 z,1/2+x,1/2+y
30 z,1/2-x,1/2-y
31 -z,1/2-x,1/2+y
32 -z,1/2+x,1/2-y
33 y,1/2+z,1/2+x
34 -y,1/2+z,1/2-x
35 y,1/2-z,1/2-x
36 -y,1/2-z,1/2+x
37 y,1/2+x,1/2-z
38 -y,1/2-x,1/2-z
39 y,1/2-x,1/2+z
40 -y,1/2+x,1/2+z
41 x,1/2+z,1/2-y
42 -x,1/2+z,1/2+y
43 -x,1/2-z,1/2-y
44 x,1/2-z,1/2+y
45 z,1/2+y,1/2-x
46 z,1/2-y,1/2+x
47 -z,1/2+y,1/2+x
48 -z,1/2-y,1/2-x
49 1/2+x,y,1/2+z
50 1/2-x,-y,1/2+z
51 1/2-x,y,1/2-z
52 1/2+x,-y,1/2-z
53 1/2+z,x,1/2+y
54 1/2+z,-x,1/2-y
55 1/2-z,-x,1/2+y
56 1/2-z,x,1/2-y
57 1/2+y,z,1/2+x
58 1/2-y,z,1/2-x
59 1/2+y,-z,1/2-x
60 1/2-y,-z,1/2+x
61 1/2+y,x,1/2-z
62 1/2-y,-x,1/2-z
63 1/2+y,-x,1/2+z
64 1/2-y,x,1/2+z
65 1/2+x,z,1/2-y
66 1/2-x,z,1/2+y
67 1/2-x,-z,1/2-y
68 1/2+x,-z,1/2+y
69 1/2+z,y,1/2-x
70 1/2+z,-y,1/2+x
71 1/2-z,y,1/2+x
72 1/2-z,-y,1/2-x
73 1/2+x,1/2+y,z
74 1/2-x,1/2-y,z
75 1/2-x,1/2+y,-z
76 1/2+x,1/2-y,-z
77 1/2+z,1/2+x,y
78 1/2+z,1/2-x,-y
79 1/2-z,1/2-x,y
80 1/2-z,1/2+x,-y
81 1/2+y,1/2+z,x
82 1/2-y,1/2+z,-x
83 1/2+y,1/2-z,-x
84 1/2-y,1/2-z,x
85 1/2+y,1/2+x,-z
86 1/2-y,1/2-x,-z
87 1/2+y,1/2-x,z
88 1/2-y,1/2+x,z
89 1/2+x,1/2+z,-y
90 1/2-x,1/2+z,y
91 1/2-x,1/2-z,-y
92 1/2+x,1/2-z,y
93 1/2+z,1/2+y,-x
94 1/2+z,1/2-y,x
95 1/2-z,1/2+y,x
96 1/2-z,1/2-y,-x
97 -x,-y,-z
98 x,y,-z
99 x,-y,z
100 -x,y,z
101 -z,-x,-y
102 -z,x,y
103 z,x,-y
104 z,-x,y
105 -y,-z,-x
106 y,-z,x
107 -y,z,x
108 y,z,-x
109 -y,-x,z
110 y,x,z
111 -y,x,-z
112 y,-x,-z
113 -x,-z,y
114 x,-z,-y
115 x,z,y
116 -x,z,-y
117 -z,-y,x
118 -z,y,-x
119 z,-y,-x
120 z,y,x
121 -x,1/2-y,1/2-z
122 x,1/2+y,1/2-z
123 x,1/2-y,1/2+z
124 -x,1/2+y,1/2+z
125 -z,1/2-x,1/2-y
126 -z,1/2+x,1/2+y
127 z,1/2+x,1/2-y
128 z,1/2-x,1/2+y
129 -y,1/2-z,1/2-x
130 y,1/2-z,1/2+x
131 -y,1/2+z,1/2+x
132 y,1/2+z,1/2-x
133 -y,1/2-x,1/2+z
134 y,1/2+x,1/2+z
135 -y,1/2+x,1/2-z
136 y,1/2-x,1/2-z
137 -x,1/2-z,1/2+y
138 x,1/2-z,1/2-y
139 x,1/2+z,1/2+y
140 -x,1/2+z,1/2-y
141 -z,1/2-y,1/2+x
142 -z,1/2+y,1/2-x
143 z,1/2-y,1/2-x
144 z,1/2+y,1/2+x
145 1/2-x,-y,1/2-z
146 1/2+x,y,1/2-z
147 1/2+x,-y,1/2+z
148 1/2-x,y,1/2+z
149 1/2-z,-x,1/2-y
150 1/2-z,x,1/2+y
151 1/2+z,x,1/2-y
152 1/2+z,-x,1/2+y
153 1/2-y,-z,1/2-x
154 1/2+y,-z,1/2+x
155 1/2-y,z,1/2+x
156 1/2+y,z,1/2-x
157 1/2-y,-x,1/2+z
158 1/2+y,x,1/2+z
159 1/2-y,x,1/2-z
160 1/2+y,-x,1/2-z
161 1/2-x,-z,1/2+y
162 1/2+x,-z,1/2-y
163 1/2+x,z,1/2+y
164 1/2-x,z,1/2-y
165 1/2-z,-y,1/2+x
166 1/2-z,y,1/2-x
167 1/2+z,-y,1/2-x
168 1/2+z,y,1/2+x
169 1/2-x,1/2-y,-z
170 1/2+x,1/2+y,-z
171 1/2+x,1/2-y,z
172 1/2-x,1/2+y,z
173 1/2-z,1/2-x,-y
174 1/2-z,1/2+x,y
175 1/2+z,1/2+x,-y
176 1/2+z,1/2-x,y
177 1/2-y,1/2-z,-x
178 1/2+y,1/2-z,x
179 1/2-y,1/2+z,x
180 1/2+y,1/2+z,-x
181 1/2-y,1/2-x,z
182 1/2+y,1/2+x,z
183 1/2-y,1/2+x,-z
184 1/2+y,1/2-x,-z
185 1/2-x,1/2-z,y
186 1/2+x,1/2-z,-y
187 1/2+x,1/2+z,y
188 1/2-x,1/2+z,-y
189 1/2-z,1/2-y,x
190 1/2-z,1/2+y,-x
191 1/2+z,1/2-y,-x
192 1/2+z,1/2+y,x
_cell_length_a                   39.887(3)
_cell_length_b                   39.887(3)
_cell_length_c                   39.887(3)
_cell_angle_alpha                90
_cell_angle_beta                 90
_cell_angle_gamma                90
_cell_volume                     63459.1

loop_
_atom_site_label
_atom_site_type_symbol
_atom_site_fract_x
_atom_site_fract_y
_atom_site_fract_z
Co1  Co     0.5000      0.35945(2)  0.64055(2)
Co2  Co     0.5000      0.30985(2)  0.69015(2)
C1   C      0.41004(7)  0.29912(11) 0.58996(7)
H1   H      0.4185      0.3192      0.5815
C2   C      0.42512(8)  0.28451(8)  0.61732(8)
C3   C      0.41267(9)  0.25350(10) 0.62917(9)
H3   H      0.4230      0.2432      0.6473
C4   C      0.38564(13) 0.23849(15) 0.61436(13)
C5   C      0.3727(2)   0.2047(2)   0.6273(2)
H5A  H      0.3858      0.1978      0.6462
H5B  H      0.3497      0.2069      0.6339
H5C  H      0.3745      0.1882      0.6099
C6   C      0.45359(7)  0.30201(8)  0.63477(8)
O1   O      0.46429(5)  0.32815(6)  0.62178(6)
O2   O      0.46435(6)  0.28872(6)  0.66107(6)
O3   O      0.5000      0.39905(10) 0.60095(10)
N1   N      0.4994(3)   0.2707(6)   0.7286(6)
N2   N      0.4990(3)   0.2251(6)   0.7739(6)
C7   C      0.5084(3)   0.2384(6)   0.7141(6)
H7A  H      0.5305      0.2398      0.7041
H7B  H      0.4925      0.2327      0.6965
C8   C      0.5081(3)   0.2107(6)   0.7414(6)
H8A  H      0.4921      0.1934      0.7354
H8B  H      0.5301      0.2005      0.7429
C9   C      0.4660(2)   0.2681(6)   0.7438(6)
H9A  H      0.4497      0.2628      0.7266
H9B  H      0.4599      0.2894      0.7537
C10  C      0.4658(3)   0.2404(6)   0.7711(6)
H10A H      0.4594      0.2501      0.7925
H10B H      0.4494      0.2234      0.7654
C11  C      0.5236(2)   0.2788(6)   0.7552(6)
H11A H      0.5178      0.3002      0.7652
H11B H      0.5459      0.2807      0.7456
C12  C      0.5233(3)   0.2511(6)   0.7825(6)
H12A H      0.5455      0.2413      0.7844
H12B H      0.5176      0.2609      0.8040
C2   C      0.38268(8)  0.28451(8)  0.57488(8)
C3   C      0.37083(9)  0.25350(10) 0.58733(9)
H3   H      0.3527      0.2432      0.5770
H5A  H      0.3538      0.1978      0.6142
H5B  H      0.3661      0.2069      0.6503
H5C  H      0.3901      0.1882      0.6255
C6   C      0.36523(8)  0.30201(8)  0.54641(7)
O1   O      0.37822(6)  0.32815(6)  0.53571(5)
O2   O      0.33893(6)  0.28872(6)  0.53565(6)
N2   N      0.5010(3)   0.2261(6)   0.7749(6)
C7   C      0.4916(3)   0.2859(6)   0.7616(6)
H7A  H      0.4695      0.2959      0.7602
H7B  H      0.5075      0.3035      0.7673
C8   C      0.4919(3)   0.2586(6)   0.7893(6)
H8A  H      0.5079      0.2646      0.8066
H8B  H      0.4699      0.2571      0.7995
C9   C      0.5340(2)   0.2562(6)   0.7319(6)
H9A  H      0.5503      0.2734      0.7372
H9B  H      0.5401      0.2463      0.7106
C10  C      0.5342(3)   0.2289(6)   0.7596(6)
H10A H      0.5406      0.2075      0.7499
H10B H      0.5506      0.2346      0.7766
C11  C      0.4764(2)   0.2448(6)   0.7212(6)
H11A H      0.4822      0.2348      0.6998
H11B H      0.4541      0.2544      0.7193
C12  C      0.4767(3)   0.2175(6)   0.7489(6)
H12A H      0.4545      0.2156      0.7587
H12B H      0.4824      0.1960      0.7391
N1   N      0.4994(3)   0.2293(6)   0.7714(6)
N2   N      0.4990(3)   0.2749(6)   0.7261(6)
C7   C      0.5084(3)   0.2616(6)   0.7859(6)
H7A  H      0.5305      0.2602      0.7959
H7B  H      0.4925      0.2673      0.8035
C8   C      0.5081(3)   0.2893(6)   0.7586(6)
H8A  H      0.4921      0.3066      0.7646
H8B  H      0.5301      0.2995      0.7571
C9   C      0.4660(2)   0.2319(6)   0.7562(6)
H9A  H      0.4497      0.2372      0.7734
H9B  H      0.4599      0.2106      0.7463
C10  C      0.4658(3)   0.2596(6)   0.7289(6)
H10A H      0.4594      0.2499      0.7075
H10B H      0.4494      0.2766      0.7346
C11  C      0.5236(2)   0.2212(6)   0.7448(6)
H11A H      0.5178      0.1998      0.7348
H11B H      0.5459      0.2193      0.7544
C12  C      0.5233(3)   0.2489(6)   0.7175(6)
H12A H      0.5455      0.2587      0.7156
H12B H      0.5176      0.2391      0.6960
N2   N      0.5010(3)   0.2739(6)   0.7251(6)
C7   C      0.4916(3)   0.2141(6)   0.7384(6)
H7A  H      0.4695      0.2041      0.7398
H7B  H      0.5075      0.1965      0.7327
C8   C      0.4919(3)   0.2414(6)   0.7107(6)
H8A  H      0.5079      0.2354      0.6934
H8B  H      0.4699      0.2429      0.7005
C9   C      0.5340(2)   0.2438(6)   0.7681(6)
H9A  H      0.5503      0.2266      0.7628
H9B  H      0.5401      0.2537      0.7894
C10  C      0.5342(3)   0.2711(6)   0.7404(6)
H10A H      0.5406      0.2925      0.7501
H10B H      0.5506      0.2654      0.7234
C11  C      0.4764(2)   0.2552(6)   0.7788(6)
H11A H      0.4822      0.2652      0.8002
H11B H      0.4541      0.2456      0.7807
C12  C      0.4767(3)   0.2825(6)   0.7511(6)
H12A H      0.4545      0.2844      0.7413
H12B H      0.4824      0.3040      0.7609
C7   C      0.4916(3)   0.2384(6)   0.7141(6)
H7A  H      0.4695      0.2398      0.7041
H7B  H      0.5075      0.2327      0.6965
C8   C      0.4919(3)   0.2107(6)   0.7414(6)
H8A  H      0.5079      0.1934      0.7354
H8B  H      0.4699      0.2005      0.7429
C9   C      0.5340(2)   0.2681(6)   0.7438(6)
H9A  H      0.5503      0.2628      0.7266
H9B  H      0.5401      0.2894      0.7537
C10  C      0.5342(3)   0.2404(6)   0.7711(6)
H10A H      0.5406      0.2501      0.7925
H10B H      0.5506      0.2234      0.7654
C11  C      0.4764(2)   0.2788(6)   0.7552(6)
H11A H      0.4822      0.3002      0.7652
H11B H      0.4541      0.2807      0.7456
C12  C      0.4767(3)   0.2511(6)   0.7825(6)
H12A H      0.4545      0.2413      0.7844
H12B H      0.4824      0.2609      0.8040
C7   C      0.5084(3)   0.2859(6)   0.7616(6)
H7A  H      0.5305      0.2959      0.7602
H7B  H      0.4925      0.3035      0.7673
C8   C      0.5081(3)   0.2586(6)   0.7893(6)
H8A  H      0.4921      0.2646      0.8066
H8B  H      0.5301      0.2571      0.7995
C9   C      0.4660(2)   0.2562(6)   0.7319(6)
H9A  H      0.4497      0.2734      0.7372
H9B  H      0.4599      0.2463      0.7106
C10  C      0.4658(3)   0.2289(6)   0.7596(6)
H10A H      0.4594      0.2075      0.7499
H10B H      0.4494      0.2346      0.7766
C11  C      0.5236(2)   0.2448(6)   0.7212(6)
H11A H      0.5178      0.2348      0.6998
H11B H      0.5459      0.2544      0.7193
C12  C      0.5233(3)   0.2175(6)   0.7489(6)
H12A H      0.5455      0.2156      0.7587
H12B H      0.5176      0.1960      0.7391
C7   C      0.4916(3)   0.2616(6)   0.7859(6)
H7A  H      0.4695      0.2602      0.7959
H7B  H      0.5075      0.2673      0.8035
C8   C      0.4919(3)   0.2893(6)   0.7586(6)
H8A  H      0.5079      0.3066      0.7646
H8B  H      0.4699      0.2995      0.7571
C9   C      0.5340(2)   0.2319(6)   0.7562(6)
H9A  H      0.5503      0.2372      0.7734
H9B  H      0.5401      0.2106      0.7463
C10  C      0.5342(3)   0.2596(6)   0.7289(6)
H10A H      0.5406      0.2499      0.7075
H10B H      0.5506      0.2766      0.7346
C11  C      0.4764(2)   0.2212(6)   0.7448(6)
H11A H      0.4822      0.1998      0.7348
H11B H      0.4541      0.2193      0.7544
C12  C      0.4767(3)   0.2489(6)   0.7175(6)
H12A H      0.4545      0.2587      0.7156
H12B H      0.4824      0.2391      0.6960
C7   C      0.5084(3)   0.2141(6)   0.7384(6)
H7A  H      0.5305      0.2041      0.7398
H7B  H      0.4925      0.1965      0.7327
C8   C      0.5081(3)   0.2414(6)   0.7107(6)
H8A  H      0.4921      0.2354      0.6934
H8B  H      0.5301      0.2429      0.7005
C9   C      0.4660(2)   0.2438(6)   0.7681(6)
H9A  H      0.4497      0.2266      0.7628
H9B  H      0.4599      0.2537      0.7894
C10  C      0.4658(3)   0.2711(6)   0.7404(6)
H10A H      0.4594      0.2925      0.7501
H10B H      0.4494      0.2654      0.7234
C11  C      0.5236(2)   0.2552(6)   0.7788(6)
H11A H      0.5178      0.2652      0.8002
H11B H      0.5459      0.2456      0.7807
C12  C      0.5233(3)   0.2825(6)   0.7511(6)
H12A H      0.5455      0.2844      0.7413
H12B H      0.5176      0.3040      0.7609
C1   C      0.41004(7)  0.41004(7)  0.70088(11)
H1   H      0.4185      0.4185      0.6808
C2   C      0.38268(8)  0.42512(8)  0.71549(8)
C3   C      0.37083(9)  0.41267(9)  0.74650(10)
H3   H      0.3527      0.4230      0.7568
C4   C      0.38564(13) 0.38564(13) 0.76151(15)
C5   C      0.3727(2)   0.3727(2)   0.7953(2)
H5A  H      0.3538      0.3858      0.8022
H5B  H      0.3661      0.3497      0.7931
H5C  H      0.3901      0.3745      0.8118
C6   C      0.36523(8)  0.45359(7)  0.69799(8)
O1   O      0.37822(6)  0.46429(5)  0.67185(6)
O2   O      0.33893(6)  0.46435(6)  0.71128(6)
C2   C      0.42512(8)  0.38268(8)  0.71549(8)
C3   C      0.41267(9)  0.37083(9)  0.74650(10)
H3   H      0.4230      0.3527      0.7568
H5A  H      0.3858      0.3538      0.8022
H5B  H      0.3497      0.3661      0.7931
H5C  H      0.3745      0.3901      0.8118
C6   C      0.45359(7)  0.36523(8)  0.69799(8)
O1   O      0.46429(5)  0.37822(6)  0.67185(6)
O2   O      0.46435(6)  0.33893(6)  0.71128(6)
Co1  Co     0.35945(2)  0.5000      0.64055(2)
Co1  Co     0.35945(2)  0.35945(2)  0.5000
Co2  Co     0.30985(2)  0.5000      0.69015(2)
Co2  Co     0.30985(2)  0.30985(2)  0.5000
Co2  Co     0.5000      0.19015(2)  0.80985(2)
O1   O      0.53571(5)  0.37822(6)  0.67185(6)
O1   O      0.53571(5)  0.32815(6)  0.62178(6)
O2   O      0.53565(6)  0.33893(6)  0.71128(6)
O2   O      0.53565(6)  0.28872(6)  0.66107(6)
#END
